packages/bdgd2opendss/bdgd2opendss-1.0.1.tar.gz/bdgd2opendss-1.0.1/tests/dss_models_output/sub__SE001/18_SE001_1/CargasMT_SA03_202312598_18_SE001_1_------1-----.dss
New "Load.MT_61268_M1" bus1="612681.1.2.3.4" phases=3 conn=Delta model=2 kv=23.100000000 kw = 3.1969545 pf=0.92 status=variable vmaxpu=1.5 vminpu=0.6 daily="MT6_SA"  
New "Load.MT_61268_M2" bus1="612681.1.2.3.4" phases=3 conn=Delta model=3 kv=23.100000000 kw = 3.1969545 pf=0.92 status=variable vmaxpu=1.5 vminpu=0.6 daily="MT6_SA" 
New "Load.MT_80808_M1" bus1="808081.1.2.3.4" phases=3 conn=Delta model=2 kv=23.100000000 kw = 1.200174 pf=0.92 status=variable vmaxpu=1.5 vminpu=0.6 daily="MT2_SA"  
New "Load.MT_80808_M2" bus1="808081.1.2.3.4" phases=3 conn=Delta model=3 kv=23.100000000 kw = 1.200174 pf=0.92 status=variable vmaxpu=1.5 vminpu=0.6 daily="MT2_SA" 

New "Load.MT_68482_M1" bus1="684821.1.2.3.4" phases=3 conn=Delta model=2 kv=23.100000000 kw = 29.8953675 pf=0.92 status=variable vmaxpu=1.5 vminpu=0.6 daily="MT4_SA"  
New "Load.MT_68482_M2" bus1="684821.1.2.3.4" phases=3 conn=Delta model=3 kv=23.100000000 kw = 29.8953675 pf=0.92 status=variable vmaxpu=1.5 vminpu=0.6 daily="MT4_SA" 
New "Load.MT_67841_M1" bus1="678411.1.2.3.4" phases=3 conn=Delta model=2 kv=23.100000000 kw = 0.1397275 pf=0.92 status=variable vmaxpu=1.5 vminpu=0.6 daily="MT2_SA"  
New "Load.MT_67841_M2" bus1="678411.1.2.3.4" phases=3 conn=Delta model=3 kv=23.100000000 kw = 0.1397275 pf=0.92 status=variable vmaxpu=1.5 vminpu=0.6 daily="MT2_SA" 
New "Load.MT_80264_M1" bus1="802641.1.2.3.4" phases=3 conn=Delta model=2 kv=23.100000000 kw = 1.599936 pf=0.92 status=variable vmaxpu=1.5 vminpu=0.6 daily="MT1_SA"  
New "Load.MT_80264_M2" bus1="802641.1.2.3.4" phases=3 conn=Delta model=3 kv=23.100000000 kw = 1.599936 pf=0.92 status=variable vmaxpu=1.5 vminpu=0.6 daily="MT1_SA" 
New "Load.MT_64626_M1" bus1="646261.1.2.3.4" phases=3 conn=Delta model=2 kv=23.100000000 kw = 4.3058845 pf=0.92 status=variable vmaxpu=1.5 vminpu=0.6 daily="MT5_SA"  
New "Load.MT_64626_M2" bus1="646261.1.2.3.4" phases=3 conn=Delta model=3 kv=23.100000000 kw = 4.3058845 pf=0.92 status=variable vmaxpu=1.5 vminpu=0.6 daily="MT5_SA" 
New "Load.MT_35630_M1" bus1="356301.1.2.3.4" phases=3 conn=Delta model=2 kv=23.100000000 kw = 1.893348 pf=0.92 status=variable vmaxpu=1.5 vminpu=0.6 daily="MT2_SA"  
New "Load.MT_35630_M2" bus1="356301.1.2.3.4" phases=3 conn=Delta model=3 kv=23.100000000 kw = 1.893348 pf=0.92 status=variable vmaxpu=1.5 vminpu=0.6 daily="MT2_SA" 
New "Load.MT_81534_M1" bus1="815341.1.2.3.4" phases=3 conn=Delta model=2 kv=23.100000000 kw = 6.079157 pf=0.92 status=variable vmaxpu=1.5 vminpu=0.6 daily="MT1_SA"  
New "Load.MT_81534_M2" bus1="815341.1.2.3.4" phases=3 conn=Delta model=3 kv=23.100000000 kw = 6.079157 pf=0.92 status=variable vmaxpu=1.5 vminpu=0.6 daily="MT1_SA" 
New "Load.MT_82001_M1" bus1="820011.1.2.3.4" phases=3 conn=Delta model=2 kv=23.100000000 kw = 0.0 pf=0.92 status=variable vmaxpu=1.5 vminpu=0.6 daily="MT3_SA"  
New "Load.MT_82001_M2" bus1="820011.1.2.3.4" phases=3 conn=Delta model=3 kv=23.100000000 kw = 0.0 pf=0.92 status=variable vmaxpu=1.5 vminpu=0.6 daily="MT3_SA" 
New "Load.MT_65701_M1" bus1="657011.1.2.3.4" phases=3 conn=Delta model=2 kv=23.100000000 kw = 1.879769 pf=0.92 status=variable vmaxpu=1.5 vminpu=0.6 daily="MT3_SA"  
New "Load.MT_65701_M2" bus1="657011.1.2.3.4" phases=3 conn=Delta model=3 kv=23.100000000 kw = 1.879769 pf=0.92 status=variable vmaxpu=1.5 vminpu=0.6 daily="MT3_SA" 
New "Load.MT_34606_M1" bus1="346061.1.2.3.4" phases=3 conn=Delta model=2 kv=23.100000000 kw = 5.866685 pf=0.92 status=variable vmaxpu=1.5 vminpu=0.6 daily="MT6_SA"  
New "Load.MT_34606_M2" bus1="346061.1.2.3.4" phases=3 conn=Delta model=3 kv=23.100000000 kw = 5.866685 pf=0.92 status=variable vmaxpu=1.5 vminpu=0.6 daily="MT6_SA" 
New "Load.MT_78646_M1" bus1="786463.1.2.3.4" phases=3 conn=Delta model=2 kv=23.100000000 kw = 7.2131025 pf=0.92 status=variable vmaxpu=1.5 vminpu=0.6 daily="MT6_SA"  
New "Load.MT_78646_M2" bus1="786463.1.2.3.4" phases=3 conn=Delta model=3 kv=23.100000000 kw = 7.2131025 pf=0.92 status=variable vmaxpu=1.5 vminpu=0.6 daily="MT6_SA" 
New "Load.MT_67275_M1" bus1="672751.1.2.3.4" phases=3 conn=Delta model=2 kv=23.100000000 kw = 3.701556 pf=0.92 status=variable vmaxpu=1.5 vminpu=0.6 daily="MT3_SA"  
New "Load.MT_67275_M2" bus1="672751.1.2.3.4" phases=3 conn=Delta model=3 kv=23.100000000 kw = 3.701556 pf=0.92 status=variable vmaxpu=1.5 vminpu=0.6 daily="MT3_SA" 
New "Load.MT_64966_M1" bus1="649661.1.2.3.4" phases=3 conn=Delta model=2 kv=23.100000000 kw = 14.2917735 pf=0.92 status=variable vmaxpu=1.5 vminpu=0.6 daily="MT6_SA"  
New "Load.MT_64966_M2" bus1="649661.1.2.3.4" phases=3 conn=Delta model=3 kv=23.100000000 kw = 14.2917735 pf=0.92 status=variable vmaxpu=1.5 vminpu=0.6 daily="MT6_SA" 
New "Load.MT_62148_M1" bus1="621481.1.2.3.4" phases=3 conn=Delta model=2 kv=23.100000000 kw = 47.9365205 pf=0.92 status=variable vmaxpu=1.5 vminpu=0.6 daily="MT4_SA"  
New "Load.MT_62148_M2" bus1="621481.1.2.3.4" phases=3 conn=Delta model=3 kv=23.100000000 kw = 47.9365205 pf=0.92 status=variable vmaxpu=1.5 vminpu=0.6 daily="MT4_SA" 

New "Load.MT_16736_M1" bus1="167361.1.2.3.4" phases=3 conn=Delta model=2 kv=23.100000000 kw = 14.007158 pf=0.92 status=variable vmaxpu=1.5 vminpu=0.6 daily="MT5_SA"  
New "Load.MT_16736_M2" bus1="167361.1.2.3.4" phases=3 conn=Delta model=3 kv=23.100000000 kw = 14.007158 pf=0.92 status=variable vmaxpu=1.5 vminpu=0.6 daily="MT5_SA" 
New "Load.MT_82795_M1" bus1="827951.1.2.3.4" phases=3 conn=Delta model=2 kv=23.100000000 kw = 0.0 pf=0.92 status=variable vmaxpu=1.5 vminpu=0.6 daily="MT5_SA"  
New "Load.MT_82795_M2" bus1="827951.1.2.3.4" phases=3 conn=Delta model=3 kv=23.100000000 kw = 0.0 pf=0.92 status=variable vmaxpu=1.5 vminpu=0.6 daily="MT5_SA" 
New "Load.MT_30595_M1" bus1="305951.1.2.3.4" phases=3 conn=Delta model=2 kv=23.100000000 kw = 42.919432 pf=0.92 status=variable vmaxpu=1.5 vminpu=0.6 daily="MT6_SA"  
New "Load.MT_30595_M2" bus1="305951.1.2.3.4" phases=3 conn=Delta model=3 kv=23.100000000 kw = 42.919432 pf=0.92 status=variable vmaxpu=1.5 vminpu=0.6 daily="MT6_SA" 
New "Load.MT_73902_M1" bus1="739021.1.2.3.4" phases=3 conn=Delta model=2 kv=23.100000000 kw = 0.018245 pf=0.92 status=variable vmaxpu=1.5 vminpu=0.6 daily="MT5_SA"  
New "Load.MT_73902_M2" bus1="739021.1.2.3.4" phases=3 conn=Delta model=3 kv=23.100000000 kw = 0.018245 pf=0.92 status=variable vmaxpu=1.5 vminpu=0.6 daily="MT5_SA" 
New "Load.MT_71378_M1" bus1="713782.1.2.3.4" phases=3 conn=Delta model=2 kv=23.100000000 kw = 1.144695 pf=0.92 status=variable vmaxpu=1.5 vminpu=0.6 daily="MT3_SA"  
New "Load.MT_71378_M2" bus1="713782.1.2.3.4" phases=3 conn=Delta model=3 kv=23.100000000 kw = 1.144695 pf=0.92 status=variable vmaxpu=1.5 vminpu=0.6 daily="MT3_SA" 
New "Load.MT_71588_M1" bus1="715881.1.2.3.4" phases=3 conn=Delta model=2 kv=23.100000000 kw = 16.787163 pf=0.92 status=variable vmaxpu=1.5 vminpu=0.6 daily="MT6_SA"  
New "Load.MT_71588_M2" bus1="715881.1.2.3.4" phases=3 conn=Delta model=3 kv=23.100000000 kw = 16.787163 pf=0.92 status=variable vmaxpu=1.5 vminpu=0.6 daily="MT6_SA" 
New "Load.MT_73921_M1" bus1="739211.1.2.3.4" phases=3 conn=Delta model=2 kv=23.100000000 kw = 10.356504 pf=0.92 status=variable vmaxpu=1.5 vminpu=0.6 daily="MT4_SA"  
New "Load.MT_73921_M2" bus1="739211.1.2.3.4" phases=3 conn=Delta model=3 kv=23.100000000 kw = 10.356504 pf=0.92 status=variable vmaxpu=1.5 vminpu=0.6 daily="MT4_SA" 
New "Load.MT_81449_M1" bus1="814491.1.2.3.4" phases=3 conn=Delta model=2 kv=23.100000000 kw = 0.1721225 pf=0.92 status=variable vmaxpu=1.5 vminpu=0.6 daily="MT2_SA"  
New "Load.MT_81449_M2" bus1="814491.1.2.3.4" phases=3 conn=Delta model=3 kv=23.100000000 kw = 0.1721225 pf=0.92 status=variable vmaxpu=1.5 vminpu=0.6 daily="MT2_SA" 
New "Load.MT_66945_M1" bus1="669451.1.2.3.4" phases=3 conn=Delta model=2 kv=23.100000000 kw = 34.311283 pf=0.92 status=variable vmaxpu=1.5 vminpu=0.6 daily="MT4_SA"  
New "Load.MT_66945_M2" bus1="669451.1.2.3.4" phases=3 conn=Delta model=3 kv=23.100000000 kw = 34.311283 pf=0.92 status=variable vmaxpu=1.5 vminpu=0.6 daily="MT4_SA" 
New "Load.MT_81450_M1" bus1="814501.1.2.3.4" phases=3 conn=Delta model=2 kv=23.100000000 kw = 0.018384 pf=0.92 status=variable vmaxpu=1.5 vminpu=0.6 daily="MT4_SA"  
New "Load.MT_81450_M2" bus1="814501.1.2.3.4" phases=3 conn=Delta model=3 kv=23.100000000 kw = 0.018384 pf=0.92 status=variable vmaxpu=1.5 vminpu=0.6 daily="MT4_SA" 
New "Load.MT_15753_M1" bus1="157531.1.2.3.4" phases=3 conn=Delta model=2 kv=23.100000000 kw = 1.198613 pf=0.92 status=variable vmaxpu=1.5 vminpu=0.6 daily="MT2_SA"  
New "Load.MT_15753_M2" bus1="157531.1.2.3.4" phases=3 conn=Delta model=3 kv=23.100000000 kw = 1.198613 pf=0.92 status=variable vmaxpu=1.5 vminpu=0.6 daily="MT2_SA" 
New "Load.MT_25924_M1" bus1="259241.1.2.3.4" phases=3 conn=Delta model=2 kv=23.100000000 kw = 8.2582395 pf=0.92 status=variable vmaxpu=1.5 vminpu=0.6 daily="MT4_SA"  
New "Load.MT_25924_M2" bus1="259241.1.2.3.4" phases=3 conn=Delta model=3 kv=23.100000000 kw = 8.2582395 pf=0.92 status=variable vmaxpu=1.5 vminpu=0.6 daily="MT4_SA" 
New "Load.MT_74305_M1" bus1="743051.1.2.3.4" phases=3 conn=Delta model=2 kv=23.100000000 kw = 46.00296 pf=0.92 status=variable vmaxpu=1.5 vminpu=0.6 daily="MT6_SA"  
New "Load.MT_74305_M2" bus1="743051.1.2.3.4" phases=3 conn=Delta model=3 kv=23.100000000 kw = 46.00296 pf=0.92 status=variable vmaxpu=1.5 vminpu=0.6 daily="MT6_SA" 
New "Load.MT_74565_M1" bus1="745651.1.2.3.4" phases=3 conn=Delta model=2 kv=23.100000000 kw = 10.874267 pf=0.92 status=variable vmaxpu=1.5 vminpu=0.6 daily="MT6_SA"  
New "Load.MT_74565_M2" bus1="745651.1.2.3.4" phases=3 conn=Delta model=3 kv=23.100000000 kw = 10.874267 pf=0.92 status=variable vmaxpu=1.5 vminpu=0.6 daily="MT6_SA" 
New "Load.MT_79471_M1" bus1="794711.1.2.3.4" phases=3 conn=Delta model=2 kv=23.100000000 kw = 8.4047205 pf=0.92 status=variable vmaxpu=1.5 vminpu=0.6 daily="MT3_SA"  
New "Load.MT_79471_M2" bus1="794711.1.2.3.4" phases=3 conn=Delta model=3 kv=23.100000000 kw = 8.4047205 pf=0.92 status=variable vmaxpu=1.5 vminpu=0.6 daily="MT3_SA" 
New "Load.MT_71597_M1" bus1="715971.1.2.3.4" phases=3 conn=Delta model=2 kv=23.100000000 kw = 10.6409045 pf=0.92 status=variable vmaxpu=1.5 vminpu=0.6 daily="MT5_SA"  
New "Load.MT_71597_M2" bus1="715971.1.2.3.4" phases=3 conn=Delta model=3 kv=23.100000000 kw = 10.6409045 pf=0.92 status=variable vmaxpu=1.5 vminpu=0.6 daily="MT5_SA" 
New "Load.MT_79987_M1" bus1="799871.1.2.3.4" phases=3 conn=Delta model=2 kv=23.100000000 kw = 19.5010035 pf=0.92 status=variable vmaxpu=1.5 vminpu=0.6 daily="MT6_SA"  
New "Load.MT_79987_M2" bus1="799871.1.2.3.4" phases=3 conn=Delta model=3 kv=23.100000000 kw = 19.5010035 pf=0.92 status=variable vmaxpu=1.5 vminpu=0.6 daily="MT6_SA" 
New "Load.MT_74346_M1" bus1="743461.1.2.3.4" phases=3 conn=Delta model=2 kv=23.100000000 kw = 2.5970925 pf=0.92 status=variable vmaxpu=1.5 vminpu=0.6 daily="MT4_SA"  
New "Load.MT_74346_M2" bus1="743461.1.2.3.4" phases=3 conn=Delta model=3 kv=23.100000000 kw = 2.5970925 pf=0.92 status=variable vmaxpu=1.5 vminpu=0.6 daily="MT4_SA" 
New "Load.MT_31755_M1" bus1="317551.1.2.3.4" phases=3 conn=Delta model=2 kv=23.100000000 kw = 11.2879685 pf=0.92 status=variable vmaxpu=1.5 vminpu=0.6 daily="MT3_SA"  
New "Load.MT_31755_M2" bus1="317551.1.2.3.4" phases=3 conn=Delta model=3 kv=23.100000000 kw = 11.2879685 pf=0.92 status=variable vmaxpu=1.5 vminpu=0.6 daily="MT3_SA" 
New "Load.MT_75359_M1" bus1="753591.1.2.3.4" phases=3 conn=Delta model=2 kv=23.100000000 kw = 42.4137475 pf=0.92 status=variable vmaxpu=1.5 vminpu=0.6 daily="MT5_SA"  
New "Load.MT_75359_M2" bus1="753591.1.2.3.4" phases=3 conn=Delta model=3 kv=23.100000000 kw = 42.4137475 pf=0.92 status=variable vmaxpu=1.5 vminpu=0.6 daily="MT5_SA" 
New "Load.MT_16440_M1" bus1="164401.1.2.3.4" phases=3 conn=Delta model=2 kv=23.100000000 kw = 2.1878055 pf=0.92 status=variable vmaxpu=1.5 vminpu=0.6 daily="MT1_SA"  
New "Load.MT_16440_M2" bus1="164401.1.2.3.4" phases=3 conn=Delta model=3 kv=23.100000000 kw = 2.1878055 pf=0.92 status=variable vmaxpu=1.5 vminpu=0.6 daily="MT1_SA" 
New "Load.MT_81167_M1" bus1="811671.1.2.3.4" phases=3 conn=Delta model=2 kv=23.100000000 kw = 1.7894075 pf=0.92 status=variable vmaxpu=1.5 vminpu=0.6 daily="MT4_SA"  
New "Load.MT_81167_M2" bus1="811671.1.2.3.4" phases=3 conn=Delta model=3 kv=23.100000000 kw = 1.7894075 pf=0.92 status=variable vmaxpu=1.5 vminpu=0.6 daily="MT4_SA" 
New "Load.MT_65058_M1" bus1="650581.1.2.3.4" phases=3 conn=Delta model=2 kv=23.100000000 kw = 1.940515 pf=0.92 status=variable vmaxpu=1.5 vminpu=0.6 daily="MT5_SA"  
New "Load.MT_65058_M2" bus1="650581.1.2.3.4" phases=3 conn=Delta model=3 kv=23.100000000 kw = 1.940515 pf=0.92 status=variable vmaxpu=1.5 vminpu=0.6 daily="MT5_SA" 
New "Load.MT_21585_M1" bus1="215851.1.2.3.4" phases=3 conn=Delta model=2 kv=23.100000000 kw = 1.001333 pf=0.92 status=variable vmaxpu=1.5 vminpu=0.6 daily="MT4_SA"  
New "Load.MT_21585_M2" bus1="215851.1.2.3.4" phases=3 conn=Delta model=3 kv=23.100000000 kw = 1.001333 pf=0.92 status=variable vmaxpu=1.5 vminpu=0.6 daily="MT4_SA" 
New "Load.MT_27798_M1" bus1="277981.1.2.3.4" phases=3 conn=Delta model=2 kv=23.100000000 kw = 0.119822 pf=0.92 status=variable vmaxpu=1.5 vminpu=0.6 daily="MT2_SA"  
New "Load.MT_27798_M2" bus1="277981.1.2.3.4" phases=3 conn=Delta model=3 kv=23.100000000 kw = 0.119822 pf=0.92 status=variable vmaxpu=1.5 vminpu=0.6 daily="MT2_SA" 
New "Load.MT_81666_M1" bus1="816661.1.2.3.4" phases=3 conn=Delta model=2 kv=23.100000000 kw = 1.9042765 pf=0.92 status=variable vmaxpu=1.5 vminpu=0.6 daily="MT2_SA"  
New "Load.MT_81666_M2" bus1="816661.1.2.3.4" phases=3 conn=Delta model=3 kv=23.100000000 kw = 1.9042765 pf=0.92 status=variable vmaxpu=1.5 vminpu=0.6 daily="MT2_SA" 
New "Load.MT_49676_M1" bus1="496761.1.2.3.4" phases=3 conn=Delta model=2 kv=23.100000000 kw = 12.778333 pf=0.92 status=variable vmaxpu=1.5 vminpu=0.6 daily="MT4_SA"  
New "Load.MT_49676_M2" bus1="496761.1.2.3.4" phases=3 conn=Delta model=3 kv=23.100000000 kw = 12.778333 pf=0.92 status=variable vmaxpu=1.5 vminpu=0.6 daily="MT4_SA" 
New "Load.MT_81533_M1" bus1="815332.1.2.3.4" phases=3 conn=Delta model=2 kv=23.100000000 kw = 5.142561 pf=0.92 status=variable vmaxpu=1.5 vminpu=0.6 daily="MT5_SA"  
New "Load.MT_81533_M2" bus1="815332.1.2.3.4" phases=3 conn=Delta model=3 kv=23.100000000 kw = 5.142561 pf=0.92 status=variable vmaxpu=1.5 vminpu=0.6 daily="MT5_SA" 
New "Load.MT_63990_M1" bus1="639901.1.2.3.4" phases=3 conn=Delta model=2 kv=23.100000000 kw = 4.835825 pf=0.92 status=variable vmaxpu=1.5 vminpu=0.6 daily="MT2_SA"  
New "Load.MT_63990_M2" bus1="639901.1.2.3.4" phases=3 conn=Delta model=3 kv=23.100000000 kw = 4.835825 pf=0.92 status=variable vmaxpu=1.5 vminpu=0.6 daily="MT2_SA" 
New "Load.MT_20972_M1" bus1="209721.1.2.3.4" phases=3 conn=Delta model=2 kv=23.100000000 kw = 7.802446 pf=0.92 status=variable vmaxpu=1.5 vminpu=0.6 daily="MT3_SA"  
New "Load.MT_20972_M2" bus1="209721.1.2.3.4" phases=3 conn=Delta model=3 kv=23.100000000 kw = 7.802446 pf=0.92 status=variable vmaxpu=1.5 vminpu=0.6 daily="MT3_SA" 
New "Load.MT_36588_M1" bus1="365881.1.2.3.4" phases=3 conn=Delta model=2 kv=23.100000000 kw = 7.428329 pf=0.92 status=variable vmaxpu=1.5 vminpu=0.6 daily="MT1_SA"  
New "Load.MT_36588_M2" bus1="365881.1.2.3.4" phases=3 conn=Delta model=3 kv=23.100000000 kw = 7.428329 pf=0.92 status=variable vmaxpu=1.5 vminpu=0.6 daily="MT1_SA" 
New "Load.MT_74466_M1" bus1="744662.1.2.3.4" phases=3 conn=Delta model=2 kv=23.100000000 kw = 6.153673 pf=0.92 status=variable vmaxpu=1.5 vminpu=0.6 daily="MT3_SA"  
New "Load.MT_74466_M2" bus1="744662.1.2.3.4" phases=3 conn=Delta model=3 kv=23.100000000 kw = 6.153673 pf=0.92 status=variable vmaxpu=1.5 vminpu=0.6 daily="MT3_SA" 
New "Load.MT_61262_M1" bus1="612621.1.2.3.4" phases=3 conn=Delta model=2 kv=23.100000000 kw = 8.9115135 pf=0.92 status=variable vmaxpu=1.5 vminpu=0.6 daily="MT5_SA"  
New "Load.MT_61262_M2" bus1="612621.1.2.3.4" phases=3 conn=Delta model=3 kv=23.100000000 kw = 8.9115135 pf=0.92 status=variable vmaxpu=1.5 vminpu=0.6 daily="MT5_SA" 
New "Load.MT_37092_M1" bus1="370921.1.2.3.4" phases=3 conn=Delta model=2 kv=23.100000000 kw = 3.02483 pf=0.92 status=variable vmaxpu=1.5 vminpu=0.6 daily="MT2_SA"  
New "Load.MT_37092_M2" bus1="370921.1.2.3.4" phases=3 conn=Delta model=3 kv=23.100000000 kw = 3.02483 pf=0.92 status=variable vmaxpu=1.5 vminpu=0.6 daily="MT2_SA" 
New "Load.MT_78758_M1" bus1="787581.1.2.3.4" phases=3 conn=Delta model=2 kv=23.100000000 kw = 1.185343 pf=0.92 status=variable vmaxpu=1.5 vminpu=0.6 daily="MT2_SA"  
New "Load.MT_78758_M2" bus1="787581.1.2.3.4" phases=3 conn=Delta model=3 kv=23.100000000 kw = 1.185343 pf=0.92 status=variable vmaxpu=1.5 vminpu=0.6 daily="MT2_SA" 
New "Load.MT_9677_M1" bus1="96771.1.2.3.4" phases=3 conn=Delta model=2 kv=23.100000000 kw = 0.0476165 pf=0.92 status=variable vmaxpu=1.5 vminpu=0.6 daily="MT2_SA"  
New "Load.MT_9677_M2" bus1="96771.1.2.3.4" phases=3 conn=Delta model=3 kv=23.100000000 kw = 0.0476165 pf=0.92 status=variable vmaxpu=1.5 vminpu=0.6 daily="MT2_SA" 
